# LPF package for MODFLOW-2005 generated by Flopy 3.9.3
         0    -1E+30         0  
         1
         0
   1.000000E+00
         0
         0
INTERNAL               1  (10E15.6) -1 #hk layer 1                    
   3.099343E+01   2.972347E+01   3.129538E+01   3.304606E+01   2.953169E+01   2.953173E+01   3.315842E+01   3.153487E+01   2.906105E+01   3.108512E+01
   2.907316E+01   2.906854E+01   3.048392E+01   2.617344E+01   2.655017E+01   2.887543E+01   2.797434E+01   3.062849E+01   2.818395E+01   2.717539E+01
   3.293130E+01   2.954845E+01   3.013506E+01   2.715050E+01   2.891123E+01   3.022185E+01   2.769801E+01   3.075140E+01   2.879872E+01   2.941661E+01
   2.879659E+01   3.370456E+01   2.997301E+01   2.788458E+01   3.164509E+01   2.755831E+01   3.041773E+01   2.608066E+01   2.734363E+01   3.039372E+01
   3.147693E+01   3.034274E+01   2.976870E+01   2.939779E+01   2.704296E+01   2.856031E+01   2.907872E+01   3.211424E+01   3.068724E+01   2.647392E+01
   3.064817E+01   2.922984E+01   2.864616E+01   3.122335E+01   3.206200E+01   3.186256E+01   2.832157E+01   2.938157E+01   3.066253E+01   3.195109E+01
   2.904165E+01   2.962868E+01   2.778733E+01   2.760759E+01   3.162505E+01   3.271248E+01   2.985598E+01   3.200706E+01   3.072327E+01   2.870976E+01
   3.072279E+01   3.307607E+01   2.992835E+01   3.312929E+01   2.476051E+01   3.164380E+01   3.017409E+01   2.940199E+01   3.018352E+01   2.602486E+01
   2.956066E+01   3.071423E+01   3.295579E+01   2.896346E+01   2.838301E+01   2.899649E+01   3.183080E+01   3.065750E+01   2.894048E+01   3.102654E+01
   3.019415E+01   3.193729E+01   2.859589E+01   2.934468E+01   2.921578E+01   2.707297E+01   3.059224E+01   3.052211E+01   3.001023E+01   2.953083E+01
CONSTANT    1.000000E+00                           #vka1                          
