# Name file for MODFLOW-2005, generated by Flopy version 3.9.3.
#xll:0.0; yll:0.0; rotation:0.0; units:meters; lenuni:2; start_datetime:1-1-1970
LIST               2  experiment_model.list
DIS               11  experiment_model.dis
BAS6              13  experiment_model.bas
LPF               15  experiment_model.lpf
PCG               27  experiment_model.pcg
OC                14  experiment_model.oc
DATA(BINARY)      51  experiment_model.hds REPLACE
